ipss.tutorial/python_integration/results/Texas2k_zbr_lf_results.txt


                                              Load Flow Results


                                             Max Power Mismatches
                                 Bus              dPmax       Bus              dQmax
                                -------------------------------------------------------
                                Bus1064          0.000000  Bus1027          0.000088 (pu)
                                                0.0119560                   8.827354 (kva)

  X------- FROM BUS ------X AREA  VOLT            GEN    LOAD    SHUNT  X---------- TO BUS ----------X                        TRANSFORMER    RATING A
    BUS# X-- NAME --X BASKV ZONE  PU/KV  ANGLE  MW/MVAR MW/MVAR MW/MVAR   BUS# X-- NAME --X BASKV AREA CKT    MW     MVAR    RATIO   ANGLE   %I   MVA

    1001 ODESSA 2 0  115.00    1 0.0369  -96.2     0.0     20.8     0.0 -----------------------------------------------------------------------------
                               9  4.239            0.0      5.9     0.0   1064 ODESSA 3 0  115.00    1  1    106.2    28.3                   50   221
                                                                          1064 ODESSA 3 0  115.00    1  2      0.1     0.0                    0   221
                                                                          1071 ODESSA 1 0  115.00    1  1    -63.5   -17.1                   30   221
                                                                          1071 ODESSA 1 0  115.00    1  2    -63.5   -17.1                   30   221

    1002 PRESIDIO 2 0115.00    1 0.9757  -29.4     0.0     15.4     0.0 -----------------------------------------------------------------------------
                               9 112.21            0.0      4.4     0.0   1007 VAN HORN 0  115.00    1  1      2.9    -4.1                    5    98
                                                                          1010 PRESIDIO 1 0115.00    1  1    -18.3    -0.2                   19    98

    1003 O DONNELL ~1115.00    1 0.9834  -30.2     0.0      0.0     0.0 -----------------------------------------------------------------------------
                               9 113.09            0.0      0.0     0.0   1004 O DONNELL ~2230.00    1  1      7.5   -22.8  1.000UN          10   250
                                                                          1022 O DONNELL ~3115.00    1  1    -83.3   -27.7                   40   221
                                                                          1055 ODONNELL 0  115.00    1  1     75.8    50.5                   93    98

    1004 O DONNELL ~2230.00    1 1.0100  -30.8   158.3      0.0     0.0 -----------------------------------------------------------------------------
                               9 232.30          -26.0R     0.0     0.0   3133 SNYDER 2 0  230.00    3  1    165.7   -49.5                   33   523
                                                                          1003 O DONNELL ~1115.00    1  1     -7.5    23.5  1.000LK          10   250

    1005 BIG SPRING~8115.00    1 0.9405  -29.4     0.0      0.0     0.0 -----------------------------------------------------------------------------
                               9 108.16            0.0      0.0     0.0   1006 BIG SPRING~913.800    1  1    -25.6   -36.5  1.000UN         106    42
                                                                          1025 BIG SPRIN~14115.00    1  1    -58.1   -53.2                   53   149
                                                                          1061 BIG SPRIN~10115.00    1  1     80.7    85.0                   53   221
                                                                          1067 BIG SPRIN~13115.00    1  1      3.0     4.7                    6    98

    1006 BIG SPRING~913.800    1 1.0000  -27.2    25.7      0.0     0.0 -----------------------------------------------------------------------------
                               9 13.800           39.8R     0.0     0.0   1005 BIG SPRING~8115.00    1  1     25.7    39.8  1.000LK         113    42

    1007 VAN HORN 0  115.00    1 0.9789  -30.2     0.0      7.0     0.0 -----------------------------------------------------------------------------
                               9 112.57            0.0      2.0     0.0   1002 PRESIDIO 2 0115.00    1  1     -2.9    -1.9                    4    98
                                                                          1015 MARFA 0     115.00    1  1     -2.8    -3.3                    4    98
                                                                          1031 FORT DAVIS 0115.00    1  1     -1.3     3.3                    4    98

    1008 IRAAN 2 0   115.00    1 1.0118  -17.5     0.0      0.0     0.0 -----------------------------------------------------------------------------
                               9 116.35            0.0      0.0     0.0   1009 IRAAN 2 1   13.800    1  1    -61.7    17.4  1.000UN          53   120
                                                                          1032 MCCAMEY 1 0 115.00    1  1     62.4    -2.9                   64    98
                                                                          1069 IRAAN 1 0   115.00    1  1     -0.7   -14.5                   10   149

    1009 IRAAN 2 1   13.800    1 1.0000  -14.1    61.9      0.0     0.0 -----------------------------------------------------------------------------
                               9 13.800          -13.6R     0.0     0.0   1008 IRAAN 2 0   115.00    1  1     61.9   -13.6  1.000LK          53   120

    1010 PRESIDIO 1 0115.00    1 0.9856  -27.9     0.0      0.0     0.0 -----------------------------------------------------------------------------
                               9 113.35            0.0      0.0     0.0   1002 PRESIDIO 2 0115.00    1  1     18.5    -1.0                   19    98
                                                                          1011 PRESIDIO 1 122.000    1  1    -10.0     0.3  1.000UN          22    46
                                                                          1015 MARFA 0     115.00    1  1     10.4    -2.8                   11    98
                                                                          1030 ALPINE 0    115.00    1  1    -18.9     1.5                   19    98

    1011 PRESIDIO 1 122.000    1 0.9858  -26.0    10.0      0.0     0.0 -----------------------------------------------------------------------------
                               9 21.688            0.0      0.0     0.0   1010 PRESIDIO 1 0115.00    1  1     10.0     0.0  1.000LK          22    46

    1012 SANDERSON 0 115.00    1 1.0143  -32.3     0.0      3.0     0.0 -----------------------------------------------------------------------------
                               9 116.64            0.0      0.8     0.0   1087 SHEFFIELD 0 115.00    1  1    -65.9    15.5                   45   149
                                                                          3051 DEL RIO 1   115.00    3  1     63.0    -6.5                   42   149

    1013 MONAHANS 2 0115.00    1 0.9528  -27.9     0.0     29.2     0.0 -----------------------------------------------------------------------------
                               9 109.57            0.0      8.3     0.0   1031 FORT DAVIS 0115.00    1  1     10.6    -7.4                   13    98
                                                                          1047 MONAHANS 1 0115.00    1  1    -60.2    14.0                   28   221
                                                                          1086 PECOS 0     115.00    1  1     20.4   -14.8                   26    98

    1014 GRANDFALLS 0115.00    1 0.9709  -23.0     0.0      2.2     0.0 -----------------------------------------------------------------------------
                               9 111.65            0.0      0.6     0.0   1047 MONAHANS 1 0115.00    1  1     29.1     5.9                   20   149
                                                                          1083 FORT STOCK~4115.00    1  1    -31.4    -6.6                   22   149

    1015 MARFA 0     115.00    1 0.9840  -29.6     0.0      7.5     0.0 -----------------------------------------------------------------------------
                               9 113.15            0.0      2.1     0.0   1007 VAN HORN 0  115.00    1  1      2.8    -1.6                    3    98
                                                                          1010 PRESIDIO 1 0115.00    1  1    -10.4    -0.6                   11    98

    1016 GARDEN CIT~1115.00    1 0.9887  -28.4     0.0      2.9     0.0 -----------------------------------------------------------------------------
                               9 113.70            0.0      0.8     0.0   1034 BIG SPRING~6115.00    1  1     -5.2    18.9                   20    98
                                                                          1068 MIDLAND 1 0 115.00    1  1      2.3     9.6                   10    98

    1017 ODESSA 4 0  115.00    1 0.6971  -36.7     0.0     18.3     0.0 -----------------------------------------------------------------------------
                               9 80.162            0.0      5.2     0.0   1018 NOTREES 0   115.00    1  1    -30.8   -92.8                  100    98
                                                                          1029 MIDLAND 3 0 115.00    1  1     43.1    -6.1                   29   149
                                                                          1037 ODESSA 5 0  115.00    1  1     70.8   175.9                   86   221
                                                                          1047 MONAHANS 1 0115.00    1  1   -101.3   -82.2                   87   150

    1018 NOTREES 0   115.00    1 0.8160  -37.3     0.0      0.1     0.0 -----------------------------------------------------------------------------
                               9 93.844            0.0      0.0     0.0   1017 ODESSA 4 0  115.00    1  1     37.1   107.6                  116    98
                                                                          1024 ODESSA 6 0  115.00    1  1    -37.2  -107.6                  116    98

    1019 MIDLAND 4 0 115.00    1 0.5015  -38.4     0.0     61.8     0.0 -----------------------------------------------------------------------------
                               9 57.667            0.0     17.5     0.0   1040 ANDREWS 0   115.00    1  1    -18.1   -67.1                   47   149
                                                                          1045 MIDLAND 5 0 115.00    1  1    190.4   284.2                  155   221
                                                                          1071 ODESSA 1 0  115.00    1  1    -79.9   -23.4                   37   225
                                                                          1071 ODESSA 1 0  115.00    1  2    -79.9   -23.4                   37   225
                                                                          1084 BIG SPRING~3115.00    1  1    -74.3  -151.9                   77   220

    1020 BIG SPRING~1115.00    1 1.0190  -28.0     0.0      0.0     0.0 -----------------------------------------------------------------------------
                               9 117.19            0.0      0.0     0.0   1021 BIG SPRING~213.800    1  1   -148.9    39.8  1.000UN          62   250
                                                                          1025 BIG SPRIN~14115.00    1  1    -33.0    68.4                   51   149
                                                                          1084 BIG SPRING~3115.00    1  1     59.4   -42.7                   33   221
                                                                          3059 STERLING C~2115.00    3  1     22.8    14.9                    9   300
                                                                          3130 SAN ANGELO~3115.00    3  1     99.7    -0.7                   45   221

    1021 BIG SPRING~213.800    1 1.0000  -21.4   149.6      0.0     0.0 -----------------------------------------------------------------------------
                               9 13.800          -21.9R     0.0     0.0   1020 BIG SPRING~1115.00    1  1    149.6   -21.9  1.000LK          60   250

    1022 O DONNELL ~3115.00    1 0.9933  -29.3     0.0      0.0     0.0 -----------------------------------------------------------------------------
                               9 114.23            0.0      0.0     0.0   1003 O DONNELL ~1115.00    1  1     83.7    28.9                   40   221
                                                                          1023 O DONNELL ~413.800    1  1   -134.0     2.5  1.000UN          54   250
                                                                          1028 COAHOMA 0   115.00    1  1     25.2   -15.7                   13   221
                                                                          1028 COAHOMA 0   115.00    1  2     25.2   -15.7                   13   221

    1023 O DONNELL ~413.800    1 1.0100  -20.3   135.0      0.0     0.0 -----------------------------------------------------------------------------
                               9 13.938           18.8R     0.0     0.0   1022 O DONNELL ~3115.00    1  1    135.0    18.8  1.000LK          55   250

    1024 ODESSA 6 0  115.00    1 0.9076  -36.3     0.0     63.0     0.0 -----------------------------------------------------------------------------
                               9 104.37            0.0     17.9     0.0   1018 NOTREES 0   115.00    1  1     39.3   119.7                  129    98
                                                                          1090 GOLDSMITH 0 115.00    1  1   -102.4  -137.5                  115   149

    1025 BIG SPRIN~14115.00    1 0.9987  -27.1     0.0      0.0     0.0 -----------------------------------------------------------------------------
                               9 114.85            0.0      0.0     0.0   1005 BIG SPRING~8115.00    1  1     59.4    57.8                   56   149
                                                                          1020 BIG SPRING~1115.00    1  1     33.4   -67.1                   50   149
                                                                          1026 BIG SPRIN~1513.800    1  1    -92.8     9.3  1.000UN          47   200

    1026 BIG SPRIN~1513.800    1 1.0000  -17.4    93.2      0.0     0.0 -----------------------------------------------------------------------------
                               9 13.800            6.4R     0.0     0.0   1025 BIG SPRIN~14115.00    1  1     93.1     6.4  1.000LK          47   200

    1027 MIDLAND 2 0 115.00    1 0.4676  -49.7     0.0    101.2     0.0 -----------------------------------------------------------------------------
                               9 53.770            0.0     28.7     0.0   1045 MIDLAND 5 0 115.00    1  1     24.6    91.7                   43   221
                                                                          1056 LENORAH 0   115.00    1  1   -125.8  -104.0                   65   250

    1028 COAHOMA 0   115.00    1 1.0038  -30.8     0.0     10.0     0.0 -----------------------------------------------------------------------------
                               9 115.44            0.0      2.8     0.0   1022 O DONNELL ~3115.00    1  1    -25.0    14.8                   13   221
                                                                          1022 O DONNELL ~3115.00    1  2    -25.0    14.8                   13   221
                                                                          3109 FLUVANNA 1 0115.00    3  1     40.1   -32.4                   21   250

    1029 MIDLAND 3 0 115.00    1 0.6942  -44.2     0.0     83.2     0.0 -----------------------------------------------------------------------------
                               9 79.835            0.0     23.6     0.0   1017 ODESSA 4 0  115.00    1  1    -41.8    10.5                   29   149
                                                                          1056 LENORAH 0   115.00    1  1    -41.4   -14.8                   20   221

    1030 ALPINE 0    115.00    1 0.9856  -23.6     0.0     24.6     0.0 -----------------------------------------------------------------------------
                               9 113.34            0.0      7.0     0.0   1010 PRESIDIO 1 0115.00    1  1     19.2    -4.9                   20    98
                                                                          1038 FORT STOCK~1115.00    1  1    -26.1    -0.4                   27    98
                                                                          1083 FORT STOCK~4115.00    1  1    -17.7    -1.7                   18    98

    1031 FORT DAVIS 0115.00    1 0.9647  -29.9     0.0      9.2     0.0 -----------------------------------------------------------------------------
                               9 110.94            0.0      2.6     0.0   1007 VAN HORN 0  115.00    1  1      1.3    -7.1                    7    98
                                                                          1013 MONAHANS 2 0115.00    1  1    -10.5     4.5                   12    98

    1032 MCCAMEY 1 0 115.00    1 0.9888  -21.4     0.0      0.0     0.0 -----------------------------------------------------------------------------
                               9 113.71            0.0      0.0     0.0   1008 IRAAN 2 0   115.00    1  1    -60.7     5.6                   62    98
                                                                          1033 MCCAMEY 1 1 230.00    1  1    106.6   -17.0  1.000UN          64   170
                                                                          1036 CRANE 0     115.00    1  1     15.5    -5.6                   17    98
                                                                          1038 FORT STOCK~1115.00    1  1    -61.5    17.0                   41   155

    1033 MCCAMEY 1 1 230.00    1 1.0000  -25.7   208.5      0.0     0.0 -----------------------------------------------------------------------------
                               9 230.00          310.9R     0.0     0.0   1081 ODESSA 1 10 230.00    1  1    139.8   309.8                   62   548
                                                                          3050 DEL RIO 0   230.00    3  1    175.0   -24.0                   27   647
                                                                          1032 MCCAMEY 1 0 115.00    1  1   -106.3    25.0  1.000LK          64   170

    1034 BIG SPRING~6115.00    1 0.9679  -27.8     0.0      0.0     0.0 -----------------------------------------------------------------------------
                               9 111.31            0.0      0.0     0.0   1016 GARDEN CIT~1115.00    1  1      5.3   -19.9                   21    98
                                                                          1035 BIG SPRING~713.800    1  1    -67.2   -31.2  1.000UN          57   130
                                                                          1067 BIG SPRIN~13115.00    1  1     61.9    51.1                   82    98

    1035 BIG SPRING~713.800    1 1.0000  -24.5    67.5      0.0     0.0 -----------------------------------------------------------------------------
                               9 13.800           36.2R     0.0     0.0   1034 BIG SPRING~6115.00    1  1     67.5    36.2  1.000LK          59   130

    1036 CRANE 0     115.00    1 0.9916  -22.6     0.0     13.6     0.0 -----------------------------------------------------------------------------
                               9 114.04            0.0      3.9     0.0   1032 MCCAMEY 1 0 115.00    1  1    -15.5     4.4                   16    98
                                                                          1088 MCCAMEY 2 0 115.00    1  1      1.9    -8.2                    9    98

    1037 ODESSA 5 0  115.00    1 0.6050  -38.1     0.0    102.2     0.0 -----------------------------------------------------------------------------
                               9 69.573            0.0     29.0     0.0   1017 ODESSA 4 0  115.00    1  1    -65.2  -151.3                   75   221
                                                                          1071 ODESSA 1 0  115.00    1  1    -37.0   122.3                   43   300

    1038 FORT STOCK~1115.00    1 1.0000  -17.1     0.0      0.0     0.0 -----------------------------------------------------------------------------
                               9 115.00            0.0      0.0     0.0   1030 ALPINE 0    115.00    1  1     26.6    -2.9                   27    98
                                                                          1032 MCCAMEY 1 0 115.00    1  1     63.4   -13.8                   42   155
                                                                          1039 FORT STOCK~222.000    1  1   -110.4     7.8  1.000UN          55   200
                                                                          1082 FORT STOCK~3115.00    1  1    -70.1    16.7                   48   149
                                                                          1083 FORT STOCK~4115.00    1  1     90.5    -7.8                   41   221

    1039 FORT STOCK~222.000    1 1.0000  -11.6   110.6      0.0     0.0 -----------------------------------------------------------------------------
                               9 22.000            2.7R     0.0     0.0   1038 FORT STOCK~1115.00    1  1    110.6     2.7  1.000LK          55   200

    1040 ANDREWS 0   115.00    1 0.7941  -37.8     0.0     44.4     0.0 -----------------------------------------------------------------------------
                               9 91.318            0.0     12.6     0.0   1019 MIDLAND 4 0 115.00    1  1     27.6   104.8                   73   149
                                                                          1090 GOLDSMITH 0 115.00    1  1    -71.9  -117.3                   92   149

    1041 FORSAN 0    115.00    1 0.9348  -28.9     0.0      0.0     0.0 -----------------------------------------------------------------------------
                               9 107.51            0.0      0.0     0.0   1042 FORSAN 1    13.800    1  1      0.0    -0.0  1.000UN           0   145
                                                                          1043 FORSAN 2    13.800    1  1    -44.0   -45.1  1.000UN          66    95
                                                                          1065 BIG SPRING~4115.00    1  1      6.7    69.8                   72    98
                                                                          1067 BIG SPRIN~13115.00    1  1     37.3   -24.6                   30   149

    1042 FORSAN 1    13.800    1 0.9348  -28.9     0.0      0.0     0.0 -----------------------------------------------------------------------------
                               9 12.901            0.0      0.0     0.0   1041 FORSAN 0    115.00    1  1      0.0    -0.0  1.000LK           0   145

    1043 FORSAN 2    13.800    1 1.0000  -25.6    44.1      0.0     0.0 -----------------------------------------------------------------------------
                               9 13.800           51.0R     0.0     0.0   1041 FORSAN 0    115.00    1  1     44.1    51.0  1.000LK          71    95

    1044 BIG LAKE 0  115.00    1 1.0170  -36.6     0.0     14.7     0.0 -----------------------------------------------------------------------------
                               9 116.95            0.0      4.2     0.0   3019 CHRISTOVAL 1115.00    3  1     28.2   -13.4                   21   149
                                                                          3130 SAN ANGELO~3115.00    3  1    -42.9     9.2                   20   221

    1045 MIDLAND 5 0 115.00    1 0.2392  -51.7     0.0     98.6     0.0 -----------------------------------------------------------------------------
                               9 27.507            0.0     27.9     0.0   1019 MIDLAND 4 0 115.00    1  1   -119.5  -111.1                   74   221
                                                                          1027 MIDLAND 2 0 115.00    1  1    -14.2   -46.6                   22   221
                                                                          1064 ODESSA 3 0  115.00    1  1     35.2   129.8                   61   221

    1046 OZONA 0     115.00    1 1.0226  -30.5     0.0     11.1     0.0 -----------------------------------------------------------------------------
                               9 117.60            0.0      3.1     0.0   1087 SHEFFIELD 0 115.00    1  1    -73.6    20.8                   51   149
                                                                          3009 SONORA 0    115.00    3  1     62.5   -11.4                   43   149

    1047 MONAHANS 1 0115.00    1 0.9503  -25.5     0.0      0.0     0.0 -----------------------------------------------------------------------------
                               9 109.28            0.0      0.0     0.0   1013 MONAHANS 2 0115.00    1  1     60.6   -12.5                   28   221
                                                                          1014 GRANDFALLS 0115.00    1  1    -28.8    -6.8                   20   149
                                                                          1017 ODESSA 4 0  115.00    1  1    113.9   135.0                  118   150
                                                                          1048 MONAHANS 1 118.000    1  1      0.0    -0.0  1.000UN           0   390
                                                                          1049 MONAHANS 1 218.000    1  1      0.0    -0.0  1.000UN           0   390
                                                                          1050 MONAHANS 1 318.000    1  1    -89.1   -40.7  1.000UN          79   124
                                                                          1051 MONAHANS 1 418.000    1  1    -88.9   -27.8  1.000UN          80   117
                                                                          1052 MONAHANS 1 518.000    1  1    -89.0   -50.0  1.000UN          93   110
                                                                          1053 MONAHANS 1 6230.00    1  1     31.2    39.4  1.000UN          20   250
                                                                          1085 KERMIT 0    115.00    1  1     90.1   -36.6                   44   221

    1048 MONAHANS 1 118.000    1 0.9503  -25.5     0.0      0.0     0.0 -----------------------------------------------------------------------------
                               9 17.105            0.0      0.0     0.0   1047 MONAHANS 1 0115.00    1  1      0.0    -0.0  1.000LK           0   390

    1049 MONAHANS 1 218.000    1 0.9503  -25.5     0.0      0.0     0.0 -----------------------------------------------------------------------------
                               9 17.105            0.0      0.0     0.0   1047 MONAHANS 1 0115.00    1  1      0.0    -0.0  1.000LK           0   390

    1050 MONAHANS 1 318.000    1 1.0000  -20.2    89.4      0.0     0.0 -----------------------------------------------------------------------------
                               9 18.000           51.3R     0.0     0.0   1047 MONAHANS 1 0115.00    1  1     89.4    51.3  1.000LK          83   124

    1051 MONAHANS 1 418.000    1 1.0000  -18.7    89.4      0.0     0.0 -----------------------------------------------------------------------------
                               9 18.000           40.1R     0.0     0.0   1047 MONAHANS 1 0115.00    1  1     89.4    40.1  1.000LK          84   117

    1052 MONAHANS 1 518.000    1 1.0000  -21.2    89.4      0.0     0.0 -----------------------------------------------------------------------------
                               9 18.000           59.5R     0.0     0.0   1047 MONAHANS 1 0115.00    1  1     89.4    59.5  1.000LK          98   110

    1053 MONAHANS 1 6230.00    1 0.9134  -27.2     0.0      0.0     0.0 -----------------------------------------------------------------------------
                               9 210.09            0.0      0.0     0.0   1081 ODESSA 1 10 230.00    1  1     31.1    36.9                    9   548
                                                                          1047 MONAHANS 1 0115.00    1  1    -31.1   -36.9  1.000LK          19   250

    1054 STANTON 0   115.00    1 0.7624  -38.6     0.0     15.0     0.0 -----------------------------------------------------------------------------
                               9 87.671            0.0      4.2     0.0   1056 LENORAH 0   115.00    1  1      9.2    20.1                   15   149
                                                                          1089 LAMESA 0    115.00    1  1    -24.2   -24.4                   35    98

    1055 ODONNELL 0  115.00    1 0.9520  -31.5     0.0      4.0     0.0 -----------------------------------------------------------------------------
                               9 109.48            0.0      1.1     0.0   1003 O DONNELL ~1115.00    1  1    -74.5   -47.7                   90    98
                                                                          1089 LAMESA 0    115.00    1  1     70.5    46.6                   86    98

    1056 LENORAH 0   115.00    1 0.7338  -39.0     0.0      0.0     0.0 -----------------------------------------------------------------------------
                               9 84.382            0.0      0.0     0.0   1027 MIDLAND 2 0 115.00    1  1    163.8   196.5                  102   250
                                                                          1029 MIDLAND 3 0 115.00    1  1     42.2    18.6                   21   221
                                                                          1054 STANTON 0   115.00    1  1     -9.0   -20.1                   15   149
                                                                          1057 LENORAH 1   18.000    1  1      0.0    -0.0  1.000UN           0   160
                                                                          1061 BIG SPRIN~10115.00    1  1    -91.6   -80.2                   81   150
                                                                          1065 BIG SPRING~4115.00    1  1   -105.3   -78.3                   52   250

    1057 LENORAH 1   18.000    1 0.7338  -39.0     0.0      0.0     0.0 -----------------------------------------------------------------------------
                               9 13.208            0.0      0.0     0.0   1056 LENORAH 0   115.00    1  1      0.0    -0.0  1.000LK           0   160

    1058 IRAAN 3 0   115.00    1 1.0162  -19.8     0.0     13.5     0.0 -----------------------------------------------------------------------------
                               9 116.86            0.0      3.8     0.0   1059 IRAAN 3 1   22.000    1  1      0.0    -0.0  1.000UN           0    33
                                                                          1060 IRAAN 3 2   22.000    1  1      0.0    -0.0  1.000UN           0    27
                                                                          1069 IRAAN 1 0   115.00    1  1    -79.8    11.3                   36   221
                                                                          1069 IRAAN 1 0   115.00    1  2    -79.8    11.3                   36   221
                                                                          1087 SHEFFIELD 0 115.00    1  1     73.1   -13.2                   34   221
                                                                          1087 SHEFFIELD 0 115.00    1  2     73.1   -13.2                   34   221

    1059 IRAAN 3 1   22.000    1 1.0162  -19.8     0.0      0.0     0.0 -----------------------------------------------------------------------------
                               9 22.357            0.0      0.0     0.0   1058 IRAAN 3 0   115.00    1  1      0.0    -0.0  1.000LK           0    33

    1060 IRAAN 3 2   22.000    1 1.0162  -19.8     0.0      0.0     0.0 -----------------------------------------------------------------------------
                               9 22.357            0.0      0.0     0.0   1058 IRAAN 3 0   115.00    1  1      0.0    -0.0  1.000LK           0    27

    1061 BIG SPRIN~10115.00    1 0.9130  -30.4     0.0      0.0     0.0 -----------------------------------------------------------------------------
                               9 105.00            0.0      0.0     0.0   1005 BIG SPRING~8115.00    1  1    -79.7   -81.5                   52   221
                                                                          1056 LENORAH 0   115.00    1  1     97.8   114.4                  100   150
                                                                          1062 BIG SPRIN~1113.800    1  1      0.0    -0.0  1.000UN           0    29
                                                                          1063 BIG SPRIN~1213.800    1  1      0.0    -0.0  1.000UN           0   260
                                                                          3042 SILVER 1    115.00    3  1    -18.1   -32.8                   17   221

    1062 BIG SPRIN~1113.800    1 0.9130  -30.4     0.0      0.0     0.0 -----------------------------------------------------------------------------
                               9 12.600            0.0      0.0     0.0   1061 BIG SPRIN~10115.00    1  1      0.0    -0.0  1.000LK           0    29

    1063 BIG SPRIN~1213.800    1 0.9130  -30.4     0.0      0.0     0.0 -----------------------------------------------------------------------------
                               9 12.600            0.0      0.0     0.0   1061 BIG SPRIN~10115.00    1  1      0.0    -0.0  1.000LK           0   260

    1064 ODESSA 3 0  115.00    1 0.0364  -97.7     0.0    123.8     0.0 -----------------------------------------------------------------------------
                               9  4.192            0.0     35.1     0.0   1001 ODESSA 2 0  115.00    1  1   -105.7   -25.2                   49   221
                                                                          1001 ODESSA 2 0  115.00    1  2     -0.1    -0.0                    0   221
                                                                          1045 MIDLAND 5 0 115.00    1  1    -18.0    -9.9                    9   221

    1065 BIG SPRING~4115.00    1 0.9181  -28.9     0.0      0.0     0.0 -----------------------------------------------------------------------------
                               9 105.58            0.0      0.0     0.0   1041 FORSAN 0    115.00    1  1     -6.5   -68.8                   71    98
                                                                          1056 LENORAH 0   115.00    1  1    112.5   118.2                   65   250
                                                                          1066 BIG SPRING~513.800    1  1   -106.1   -49.4  1.000UN          58   200

    1066 BIG SPRING~513.800    1 1.0000  -20.8   106.9      0.0     0.0 -----------------------------------------------------------------------------
                               9 13.800           69.4R     0.0     0.0   1065 BIG SPRING~4115.00    1  1    106.9    69.4  1.000LK          64   200

    1067 BIG SPRIN~13115.00    1 0.9378  -29.4     0.0    101.6     0.0 -----------------------------------------------------------------------------
                               9 107.85            0.0     28.8     0.0   1005 BIG SPRING~8115.00    1  1     -3.0    -5.1                    6    98
                                                                          1034 BIG SPRING~6115.00    1  1    -61.4   -48.4                   80    98
                                                                          1041 FORSAN 0    115.00    1  1    -37.2    24.8                   30   149

    1068 MIDLAND 1 0 115.00    1 0.9708  -28.4     0.0     59.4     0.0 -----------------------------------------------------------------------------
                               9 111.64            0.0     16.8     0.0   1016 GARDEN CIT~1115.00    1  1     -2.3   -11.7                   12    98
                                                                          1088 MCCAMEY 2 0 115.00    1  1    -57.1    -5.2                   58    98

    1069 IRAAN 1 0   115.00    1 1.0169  -17.5     0.0      0.0     0.0 -----------------------------------------------------------------------------
                               9 116.94            0.0      0.0     0.0   1008 IRAAN 2 0   115.00    1  1      0.7    14.0                    9   149
                                                                          1058 IRAAN 3 0   115.00    1  1     80.3    -8.9                   37   221
                                                                          1058 IRAAN 3 0   115.00    1  2     80.3    -8.9                   37   221
                                                                          1070 IRAAN 1 1   13.800    1  1   -120.0   -23.8  1.000UN          56   220
                                                                          1082 FORT STOCK~3115.00    1  1    -41.3    27.7                   33   149

    1070 IRAAN 1 1   13.800    1 1.0400  -13.0   120.4      0.0     0.0 -----------------------------------------------------------------------------
                               9 14.352           33.9R     0.0     0.0   1069 IRAAN 1 0   115.00    1  1    120.4    33.9  1.000LK          57   220

    1071 ODESSA 1 0  115.00    1 0.5232  -33.7     0.0     91.5     0.0 -----------------------------------------------------------------------------
                               9 60.168            0.0     25.9     0.0   1001 ODESSA 2 0  115.00    1  1    202.1   911.6                  423   221
                                                                          1001 ODESSA 2 0  115.00    1  2    202.1   911.6                  423   221
                                                                          1019 MIDLAND 4 0 115.00    1  1     81.1    30.9                   39   225
                                                                          1019 MIDLAND 4 0 115.00    1  2     81.1    30.9                   39   225
                                                                          1037 ODESSA 5 0  115.00    1  1     40.0  -103.2                   37   300
                                                                          1072 ODESSA 1 1  18.000    1  1   -172.6  -267.1  1.000UN         133   240
                                                                          1073 ODESSA 1 2  18.000    1  1   -183.1  -126.4  1.000UN          93   240
                                                                          1074 ODESSA 1 3  18.000    1  1   -180.0  -159.5  1.000UN         100   240
                                                                          1075 ODESSA 1 4  18.000    1  1   -181.1  -219.8  1.000UN         119   240
                                                                          1076 ODESSA 1 5  18.000    1  1      0.0    -0.0  1.000UN           0   230
                                                                          1077 ODESSA 1 6  18.000    1  1      0.0    -0.0  1.000UN           0   230
                                                                          1078 ODESSA 1 7  18.000    1  1    -91.2  -116.5  1.000UN         108   137
                                                                          1079 ODESSA 1 8  500.00    1  1    277.5  -520.1  1.000UN          29  2000
                                                                          1080 ODESSA 1 9  18.000    1  1    -87.0  -108.1  1.000UN         102   136
                                                                          1081 ODESSA 1 10 230.00    1  1    -80.4  -290.2  1.000UN          86   350

    1072 ODESSA 1 1  18.000    1 1.0100  -19.1   192.1      0.0     0.0 -----------------------------------------------------------------------------
                               9 18.180          583.1R     0.0     0.0   1071 ODESSA 1 0  115.00    1  1    192.1   583.1  1.000LK         256   240

    1073 ODESSA 1 2  18.000    1 1.0100   -4.9   192.1      0.0     0.0 -----------------------------------------------------------------------------
                               9 18.180          384.1R     0.0     0.0   1071 ODESSA 1 0  115.00    1  1    192.1   384.1  1.000LK         179   240

    1074 ODESSA 1 3  18.000    1 1.0100   -9.7   192.1      0.0     0.0 -----------------------------------------------------------------------------
                               9 18.180          422.6R     0.0     0.0   1071 ODESSA 1 0  115.00    1  1    192.1   422.6  1.000LK         193   240

    1075 ODESSA 1 4  18.000    1 1.0100  -14.7   192.1      0.0     0.0 -----------------------------------------------------------------------------
                               9 18.180          515.1R     0.0     0.0   1071 ODESSA 1 0  115.00    1  1    192.1   515.1  1.000LK         229   240

    1076 ODESSA 1 5  18.000    1 0.5232  -33.7     0.0      0.0     0.0 -----------------------------------------------------------------------------
                               9  9.418            0.0      0.0     0.0   1071 ODESSA 1 0  115.00    1  1      0.0    -0.0  1.000LK           0   230

    1077 ODESSA 1 6  18.000    1 0.5232  -33.7     0.0      0.0     0.0 -----------------------------------------------------------------------------
                               9  9.418            0.0      0.0     0.0   1071 ODESSA 1 0  115.00    1  1      0.0    -0.0  1.000LK           0   230

    1078 ODESSA 1 7  18.000    1 1.0100  -15.2    95.5      0.0     0.0 -----------------------------------------------------------------------------
                               9 18.180          269.3R     0.0     0.0   1071 ODESSA 1 0  115.00    1  1     95.5   269.3  1.000LK         209   137

    1079 ODESSA 1 8  500.00    1 1.0100  -47.8    95.5      0.0     0.0 -----------------------------------------------------------------------------
                               9 505.00          377.2R     0.0     0.0   3048 ROSCOE 5 2  500.00    3  1    117.3  -262.9                   13  2300
                                                                          3048 ROSCOE 5 2  500.00    3  2    117.3  -262.9                   13  2300
                                                                          5120 BROWNWOOD 0 500.00    5  1    136.8  -201.1                   11  2300
                                                                          1071 ODESSA 1 0  115.00    1  1   -275.9  1104.0  1.000LK          57  2000

    1080 ODESSA 1 9  18.000    1 1.0100  -15.8    95.5      0.0     0.0 -----------------------------------------------------------------------------
                               9 18.180          250.3R     0.0     0.0   1071 ODESSA 1 0  115.00    1  1     95.5   250.3  1.000LK         197   136

    1081 ODESSA 1 10 230.00    1 0.8995  -27.8     0.0      0.0     0.0 -----------------------------------------------------------------------------
                               9 206.88            0.0      0.0     0.0   1033 MCCAMEY 1 1 230.00    1  1   -136.3  -278.8                   57   548
                                                                          1053 MONAHANS 1 6230.00    1  1    -31.0   -41.0                    9   548
                                                                          3058 STERLING C~1230.00    3  1     81.4  -136.3                   29   548
                                                                          1071 ODESSA 1 0  115.00    1  1     85.9   510.6  1.000LK         148   350

    1082 FORT STOCK~3115.00    1 1.0000  -15.0   112.5      0.0     0.0 -----------------------------------------------------------------------------
                               9 115.00          -41.7R     0.0     0.0   1038 FORT STOCK~1115.00    1  1     70.7   -14.9                   48   149
                                                                          1069 IRAAN 1 0   115.00    1  1     41.8   -26.8                   33   149

    1083 FORT STOCK~4115.00    1 0.9958  -19.7     0.0     39.9     0.0 -----------------------------------------------------------------------------
                               9 114.51            0.0     11.3     0.0   1014 GRANDFALLS 0115.00    1  1     31.8     5.9                   22   149
                                                                          1030 ALPINE 0    115.00    1  1     17.9    -2.6                   18    98
                                                                          1038 FORT STOCK~1115.00    1  1    -89.6    11.3                   41   221

    1084 BIG SPRING~3115.00    1 1.0400  -30.3    86.6      0.0     0.0 -----------------------------------------------------------------------------
                               9 119.60          400.4R     0.0     0.0   1019 MIDLAND 4 0 115.00    1  1    108.3   331.6                  159   220
                                                                          1020 BIG SPRING~1115.00    1  1    -58.8    45.0                   34   221
                                                                          3130 SAN ANGELO~3115.00    3  1     37.1    23.7                   20   221

    1085 KERMIT 0    115.00    1 0.9665  -29.1     0.0     21.3     0.0 -----------------------------------------------------------------------------
                               9 111.14            0.0      6.0     0.0   1047 MONAHANS 1 0115.00    1  1    -89.1    41.9                   45   221
                                                                          1086 PECOS 0     115.00    1  1     20.0    -4.4                   14   149
                                                                          1090 GOLDSMITH 0 115.00    1  1     47.8   -43.6                   29   221

    1086 PECOS 0     115.00    1 0.9651  -31.0     0.0     39.7     0.0 -----------------------------------------------------------------------------
                               9 110.98            0.0     11.2     0.0   1013 MONAHANS 2 0115.00    1  1    -19.8    13.8                   25    98
                                                                          1085 KERMIT 0    115.00    1  1    -19.8     2.9                   13   149

    1087 SHEFFIELD 0 115.00    1 1.0213  -24.4     0.0      0.9     0.0 -----------------------------------------------------------------------------
                               9 117.46            0.0      0.3     0.0   1012 SANDERSON 0 115.00    1  1     68.2    -9.8                   46   149
                                                                          1046 OZONA 0     115.00    1  1     75.4   -15.0                   52   149
                                                                          1058 IRAAN 3 0   115.00    1  1    -72.2    17.2                   34   221
                                                                          1058 IRAAN 3 0   115.00    1  2    -72.2    17.2                   34   221

    1088 MCCAMEY 2 0 115.00    1 1.0000  -22.8    56.3      0.0     0.0 -----------------------------------------------------------------------------
                               9 115.00           15.1R     0.0     0.0   1036 CRANE 0     115.00    1  1     -1.9     6.5                    7    98
                                                                          1068 MIDLAND 1 0 115.00    1  1     58.1     8.6                   60    98

    1089 LAMESA 0    115.00    1 0.8571  -35.9     0.0     40.6     0.0 -----------------------------------------------------------------------------
                               9 98.562            0.0     11.5     0.0   1054 STANTON 0   115.00    1  1     25.9    26.7                   38    98
                                                                          1055 ODONNELL 0  115.00    1  1    -66.5   -38.2                   78    98

    1090 GOLDSMITH 0 115.00    1 1.0200  -33.5   141.4      0.0     0.0 -----------------------------------------------------------------------------
                               9 117.30          361.8R     0.0     0.0   1024 ODESSA 6 0  115.00    1  1    107.4   159.1                  129   149
                                                                          1040 ANDREWS 0   115.00    1  1     80.9   155.5                  118   149
                                                                          1085 KERMIT 0    115.00    1  1    -46.9    47.3                   30   221

    1091 RALLS 2 0   161.00    1 1.0250  -44.2     0.0     11.6     0.0 -----------------------------------------------------------------------------
                               9 165.03            0.0      3.3     0.0   2029 SILVERTON 0 161.00    2  1     14.1    -1.0                    8   187
                                                                          2048 CROSBYTON 0 161.00    2  1    -10.8    -3.2                    6   187
                                                                          2098 RALLS 1 2   161.00    2  1    -14.9     0.9                    8   187

    2001 PARIS 3 0   161.00    2 1.0036  -64.0     0.0     48.4     0.0 -----------------------------------------------------------------------------
                              11 161.58            0.0     13.7     0.0   2022 PARIS 2 1   161.00    2  1    -64.8    -7.2                   35   187
                                                                          2027 DEPORT 0    161.00    2  1     16.4    -6.5                    9   187

    2002 SAVOY 0     500.00    2 1.0163  -65.2     0.0      0.0     0.0 -----------------------------------------------------------------------------
                              11 508.17            0.0      0.0     0.0   2003 SAVOY 1     161.00    2  1    199.5     6.0  1.000UN          20   981
                                                                          2004 SAVOY 2     13.800    2  1      0.0    -0.0  1.000UN           0   635
                                                                          2005 SAVOY 3     13.800    2  1      0.0    -0.0  1.000UN           0   645
                                                                          2006 SAVOY 4     13.800    2  1      0.0    -0.0  1.000UN           0   636
                                                                          2021 PARIS 2 0   500.00    2  1   -657.1    51.0                   29  2295
                                                                          2101 SHERMAN 1 0 500.00    2  1    457.6   -57.0                   23  2020

    2003 SAVOY 1     161.00    2 1.0153  -67.4     0.0      0.0     0.0 -----------------------------------------------------------------------------
                              11 163.47            0.0      0.0     0.0   2038 ECTOR 0     161.00    2  1     41.3     7.1                   17   251
                                                                          2047 BELLS 0     161.00    2  1    158.0    -8.8                   51   310
                                                                          2002 SAVOY 0     500.00    2  1   -199.4     1.7  1.000LK          20   981

    2004 SAVOY 2     13.800    2 1.0163  -65.2     0.0      0.0     0.0 -----------------------------------------------------------------------------
                              11 14.025            0.0      0.0     0.0   2002 SAVOY 0     500.00    2  1      0.0    -0.0  1.000LK           0   635

    2005 SAVOY 3     13.800    2 1.0163  -65.2     0.0      0.0     0.0 -----------------------------------------------------------------------------
                              11 14.025            0.0      0.0     0.0   2002 SAVOY 0     500.00    2  1      0.0    -0.0  1.000LK           0   645

    2006 SAVOY 4     13.800    2 1.0163  -65.2     0.0      0.0     0.0 -----------------------------------------------------------------------------
                              11 14.025            0.0      0.0     0.0   2002 SAVOY 0     500.00    2  1      0.0    -0.0  1.000LK           0   636

    2007 HONEY GROV~1161.00    2 1.0048  -63.8     0.0      9.5     0.0 -----------------------------------------------------------------------------
                              11 161.78            0.0      2.7     0.0   2114 PARIS 1 1   161.00    2  1    -72.1    -2.3                   29   251
                                                                          2122 TELEPHONE 0 161.00    2  1     62.6    -0.4                   33   187

    2008 MEMPHIS 0   161.00    2 1.0045  -45.0     0.0      8.1     0.0 -----------------------------------------------------------------------------
                              10 161.73            0.0      2.3     0.0   2014 CHILDRESS 0 161.00    2  1     14.7    -7.2                    9   187
                                                                          2052 PANHANDLE~13161.00    2  1    -22.8     4.9                   12   187

    2009 IOWA PARK 0 161.00    2 1.0253  -54.1     0.0     39.1     0.0 -----------------------------------------------------------------------------
                              11 165.08            0.0     11.1     0.0   2049 ELECTRA 0   161.00    2  1    -93.4    21.1                   38   251
                                                                          2082 WICHITA FA~5161.00    2  1     -6.8    55.0                   30   187
                                                                          2109 BURKBURNET~1161.00    2  1     61.1    24.5                   26   250

    2010 VERNON 2 0  161.00    2 1.0304  -46.8     0.0     56.8     0.0 -----------------------------------------------------------------------------
                              10 165.89            0.0     16.1     0.0   2061 VERNON 1 0  161.00    2  1      5.7     1.2                    3   187
                                                                          2079 PADUCAH 0   161.00    2  1    -22.1     2.6                   12   187
                                                                          2091 SEYMOUR 0   161.00    2  1    -40.4    11.3                   22   187

    2011 PANHANDLE ~2500.00    2 1.0279  -43.5     0.0      0.0     0.0 -----------------------------------------------------------------------------
                              10 513.97            0.0      0.0     0.0   2012 PANHANDLE ~3161.00    2  1   -104.6    52.9  1.000UN          25   461
                                                                          2013 PANHANDLE ~418.000    2  1   -150.3   104.6  1.000UN          44   412
                                                                          2127 MIAMI 0     500.00    2  1    254.9  -157.5                   15  2020

    2012 PANHANDLE ~3161.00    2 1.0108  -41.4     0.0      0.0     0.0 -----------------------------------------------------------------------------
                              10 162.74            0.0      0.0     0.0   2041 PANHANDLE ~5161.00    2  1    -73.2    16.6                   40   187
                                                                          2052 PANHANDLE~13161.00    2  1     48.2    -3.5                   26   187
                                                                          2093 PANHANDLE~10161.00    2  1     38.7   -21.0                   24   187
                                                                          2123 PANHANDLE ~1161.00    2  1   -118.3    56.2                   52   251
                                                                          2011 PANHANDLE ~2500.00    2  1    104.6   -48.3  1.000LK          25   461

    2013 PANHANDLE ~418.000    2 1.0000  -41.0   150.5      0.0     0.0 -----------------------------------------------------------------------------
                              10 18.000          -95.4R     0.0     0.0   2011 PANHANDLE ~2500.00    2  1    150.4   -95.4  1.000LK          43   412

    2014 CHILDRESS 0 161.00    2 1.0062  -45.9     0.0     25.4     0.0 -----------------------------------------------------------------------------
                              10 162.00            0.0      7.2     0.0   2008 MEMPHIS 0   161.00    2  1    -14.7     2.8                    8   187
                                                                          2029 SILVERTON 0 161.00    2  1    -10.8   -10.0                    8   187

    2015 FORESTBURG 0161.00    2 1.0159  -67.6     0.0      4.7     0.0 -----------------------------------------------------------------------------
                              11 163.56            0.0      1.3     0.0   2037 LINDSAY 0   161.00    2  1      4.6   -30.3                   16   187
                                                                          5014 DECATUR 0   161.00    5  1     -9.3    29.0                   16   187

    2016 SHERMAN 3 0 161.00    2 1.0161  -73.2     0.0     69.3     0.0 -----------------------------------------------------------------------------
                              11 163.59            0.0     19.6     0.0   2043 SADLER 0    161.00    2  1    -19.8    10.2                   12   187
                                                                          2069 HOWE 0      161.00    2  1    -49.5   -29.8                   31   187

    2017 PANHANDLE ~7500.00    2 1.0300  -44.8     0.0      0.0     0.0 -----------------------------------------------------------------------------
                              10 515.02            0.0      0.0   106.1   2018 PANHANDLE ~8161.00    2  1    -38.3    19.0  1.000UN          16   271
                                                                          2019 PANHANDLE ~920.000    2  1      0.0    -0.0  1.000UN           0   454
                                                                          2096 RALLS 1 0   500.00    2  1    -48.6   -91.4                    5  2020
                                                                          2127 MIAMI 0     500.00    2  1     86.9  -139.7                    8  2020

    2018 PANHANDLE ~8161.00    2 1.0211  -43.7     0.0      0.0     0.0 -----------------------------------------------------------------------------
                              10 164.40            0.0      0.0     0.0   2093 PANHANDLE~10161.00    2  1    -38.3    18.1                   23   187
                                                                          2017 PANHANDLE ~7500.00    2  1     38.3   -18.1  1.000LK          16   271

    2019 PANHANDLE ~920.000    2 1.0300  -44.8     0.0      0.0     0.0 -----------------------------------------------------------------------------
                              10 20.601            0.0      0.0     0.0   2017 PANHANDLE ~7500.00    2  1      0.0    -0.0  1.000LK           0   454

    2020 WICHITA F~12161.00    2 1.0024  -53.7     0.0     48.0     0.0 -----------------------------------------------------------------------------
                              11 161.39            0.0     13.6     0.0   2045 SHEPPARD A~1161.00    2  1    138.9   -18.4                   45   310
                                                                          2055 WICHITA FA~2161.00    2  1   -186.9     4.8                   46   409

...